data_Li1.3Al0.3Ti1.7(PO4)3
_cell_length_a     11.9363
_cell_length_b     13.2903
_cell_length_c     14.8791
_cell_angle_alpha  86.84
_cell_angle_beta   87.36
_cell_angle_gamma  91.58
_space_group_name_H-M 'P1'
loop_
_atom_site_label
_atom_site_fract_x
_atom_site_fract_y
_atom_site_fract_z
Li1 0.0 0.0 0.0
