data_Li1.3Al0.3Ti1.7(PO4)3
_cell_length_a     9.6557
_cell_length_b     12.6335
_cell_length_c     13.5281
_cell_angle_alpha  85.82
_cell_angle_beta   91.07
_cell_angle_gamma  89.63
_space_group_name_H-M 'P1'
loop_
_atom_site_label
_atom_site_fract_x
_atom_site_fract_y
_atom_site_fract_z
Li1 0.0 0.0 0.0
