data_Li6.4La3Zr1.4Ta0.6
_cell_length_a     13.2192
_cell_length_b     13.6046
_cell_length_c     11.4588
_cell_angle_alpha  94.68
_cell_angle_beta   91.10
_cell_angle_gamma  93.34
_space_group_name_H-M 'P1'
loop_
_atom_site_label
_atom_site_fract_x
_atom_site_fract_y
_atom_site_fract_z
Li1 0.0 0.0 0.0
