data_Li6.4La3Zr1.4Ta0.6O12
_cell_length_a    11.7304
_cell_length_b    13.5038
_cell_length_c    13.8846
_cell_angle_alpha 93.00
_cell_angle_beta  86.10
_cell_angle_gamma 92.21
_space_group_name_H-M_alt 'P1'
loop_
_atom_site_label
_atom_site_fract_x
_atom_site_fract_y
_atom_site_fract_z
Li1 0.0 0.0 0.0
