data_Li1.3Al0.3Ti1.7(PO4)3
_cell_length_a    13.5315
_cell_length_b    14.1216
_cell_length_c    13.5157
_cell_angle_alpha 91.26
_cell_angle_beta  87.59
_cell_angle_gamma 94.16
_space_group_name_H-M_alt 'P1'
loop_
_atom_site_label
_atom_site_fract_x
_atom_site_fract_y
_atom_site_fract_z
Li1 0.0 0.0 0.0
