data_Li1.3Al0.3Ti1.7(PO4)3
_cell_length_a     10.2974
_cell_length_b     14.3035
_cell_length_c     8.3272
_cell_angle_alpha  88.60
_cell_angle_beta   85.72
_cell_angle_gamma  88.20
_space_group_name_H-M 'P1'
loop_
_atom_site_label
_atom_site_fract_x
_atom_site_fract_y
_atom_site_fract_z
Li1 0.0 0.0 0.0
