data_Li1.3Al0.3Ti1.7(PO4)3
_cell_length_a     8.1189
_cell_length_b     11.7239
_cell_length_c     8.1755
_cell_angle_alpha  92.75
_cell_angle_beta   89.35
_cell_angle_gamma  87.86
_space_group_name_H-M 'P1'
loop_
_atom_site_label
_atom_site_fract_x
_atom_site_fract_y
_atom_site_fract_z
Li1 0.0 0.0 0.0
