data_Li6.4La3Zr1.4Ta0.6O12
_cell_length_a    10.2073
_cell_length_b    8.7214
_cell_length_c    9.2336
_cell_angle_alpha 88.50
_cell_angle_beta  91.71
_cell_angle_gamma 88.83
_space_group_name_H-M_alt 'P1'
loop_
_atom_site_label
_atom_site_fract_x
_atom_site_fract_y
_atom_site_fract_z
Li1 0.0 0.0 0.0
