data_Li6.4La3Zr1.4Ta0.6O12
_cell_length_a    12.8209
_cell_length_b    12.5642
_cell_length_c    10.7750
_cell_angle_alpha 90.06
_cell_angle_beta  88.70
_cell_angle_gamma 85.92
_space_group_name_H-M_alt 'P1'
loop_
_atom_site_label
_atom_site_fract_x
_atom_site_fract_y
_atom_site_fract_z
Li1 0.0 0.0 0.0
