data_Li0.33La0.56TiO3
_cell_length_a     13.6750
_cell_length_b     14.1795
_cell_length_c     12.7918
_cell_angle_alpha  85.42
_cell_angle_beta   90.64
_cell_angle_gamma  91.25
_space_group_name_H-M 'P1'
loop_
_atom_site_label
_atom_site_fract_x
_atom_site_fract_y
_atom_site_fract_z
Li1 0.0 0.0 0.0
