data_Li1.3Al0.3Ti1.7(PO4)3
_cell_length_a    13.2445
_cell_length_b    11.4681
_cell_length_c    13.4919
_cell_angle_alpha 87.32
_cell_angle_beta  94.75
_cell_angle_gamma 92.22
_space_group_name_H-M_alt 'P1'
loop_
_atom_site_label
_atom_site_fract_x
_atom_site_fract_y
_atom_site_fract_z
Li1 0.0 0.0 0.0
