data_Li1.3Al0.3Ti1.7(PO4)3
_cell_length_a    13.7627
_cell_length_b    9.8168
_cell_length_c    8.2365
_cell_angle_alpha 86.20
_cell_angle_beta  90.26
_cell_angle_gamma 89.28
_space_group_name_H-M_alt 'P1'
loop_
_atom_site_label
_atom_site_fract_x
_atom_site_fract_y
_atom_site_fract_z
Li1 0.0 0.0 0.0
