data_Li1.3Al0.3Ti1.7(PO4)3
_cell_length_a    10.7500
_cell_length_b    9.9609
_cell_length_c    8.5990
_cell_angle_alpha 90.11
_cell_angle_beta  89.34
_cell_angle_gamma 89.75
_space_group_name_H-M_alt 'P1'
loop_
_atom_site_label
_atom_site_fract_x
_atom_site_fract_y
_atom_site_fract_z
Li1 0.0 0.0 0.0
