data_Li1.3Al0.3Ti1.7(PO4)3
_cell_length_a    14.6192
_cell_length_b    12.3861
_cell_length_c    12.7491
_cell_angle_alpha 91.46
_cell_angle_beta  94.97
_cell_angle_gamma 92.09
_space_group_name_H-M_alt 'P1'
loop_
_atom_site_label
_atom_site_fract_x
_atom_site_fract_y
_atom_site_fract_z
Li1 0.0 0.0 0.0
