data_Li0.33La0.56TiO3
_cell_length_a     10.4428
_cell_length_b     14.6270
_cell_length_c     8.5411
_cell_angle_alpha  86.99
_cell_angle_beta   94.88
_cell_angle_gamma  85.53
_space_group_name_H-M 'P1'
loop_
_atom_site_label
_atom_site_fract_x
_atom_site_fract_y
_atom_site_fract_z
Li1 0.0 0.0 0.0
