data_Li6.4La3Zr1.4Ta0.6
_cell_length_a     14.3114
_cell_length_b     9.5063
_cell_length_c     14.2024
_cell_angle_alpha  88.35
_cell_angle_beta   86.67
_cell_angle_gamma  89.84
_space_group_name_H-M 'P1'
loop_
_atom_site_label
_atom_site_fract_x
_atom_site_fract_y
_atom_site_fract_z
Li1 0.0 0.0 0.0
